* NGSPICE file created from tinyjambu_core.ext - technology: sky130A

* Black-box entry subcircuit for sky130_ef_sc_hd__decap_12 abstract view
.subckt sky130_ef_sc_hd__decap_12 VPWR VGND VPB VNB
.ends

* Black-box entry subcircuit for sky130_fd_sc_hd__fill_1 abstract view
.subckt sky130_fd_sc_hd__fill_1 VGND VNB VPB VPWR
.ends

* Black-box entry subcircuit for sky130_fd_sc_hd__decap_6 abstract view
.subckt sky130_fd_sc_hd__decap_6 VGND VNB VPB VPWR
.ends

* Black-box entry subcircuit for sky130_fd_sc_hd__and3_1 abstract view
.subckt sky130_fd_sc_hd__and3_1 A B C VGND VNB VPB VPWR X
.ends

* Black-box entry subcircuit for sky130_fd_sc_hd__tapvpwrvgnd_1 abstract view
.subckt sky130_fd_sc_hd__tapvpwrvgnd_1 VGND VPWR
.ends

* Black-box entry subcircuit for sky130_fd_sc_hd__o21a_1 abstract view
.subckt sky130_fd_sc_hd__o21a_1 A1 A2 B1 VGND VNB VPB VPWR X
.ends

* Black-box entry subcircuit for sky130_fd_sc_hd__decap_4 abstract view
.subckt sky130_fd_sc_hd__decap_4 VGND VNB VPB VPWR
.ends

* Black-box entry subcircuit for sky130_fd_sc_hd__decap_8 abstract view
.subckt sky130_fd_sc_hd__decap_8 VGND VNB VPB VPWR
.ends

* Black-box entry subcircuit for sky130_fd_sc_hd__fill_2 abstract view
.subckt sky130_fd_sc_hd__fill_2 VGND VNB VPB VPWR
.ends

* Black-box entry subcircuit for sky130_fd_sc_hd__a21o_1 abstract view
.subckt sky130_fd_sc_hd__a21o_1 A1 A2 B1 VGND VNB VPB VPWR X
.ends

* Black-box entry subcircuit for sky130_fd_sc_hd__dfrtp_1 abstract view
.subckt sky130_fd_sc_hd__dfrtp_1 CLK D RESET_B VGND VNB VPB VPWR Q
.ends

* Black-box entry subcircuit for sky130_fd_sc_hd__a32o_1 abstract view
.subckt sky130_fd_sc_hd__a32o_1 A1 A2 A3 B1 B2 VGND VNB VPB VPWR X
.ends

* Black-box entry subcircuit for sky130_fd_sc_hd__a21bo_1 abstract view
.subckt sky130_fd_sc_hd__a21bo_1 A1 A2 B1_N VGND VNB VPB VPWR X
.ends

* Black-box entry subcircuit for sky130_fd_sc_hd__a211o_1 abstract view
.subckt sky130_fd_sc_hd__a211o_1 A1 A2 B1 C1 VGND VNB VPB VPWR X
.ends

* Black-box entry subcircuit for sky130_fd_sc_hd__o22a_1 abstract view
.subckt sky130_fd_sc_hd__o22a_1 A1 A2 B1 B2 VGND VNB VPB VPWR X
.ends

* Black-box entry subcircuit for sky130_fd_sc_hd__dlygate4sd3_1 abstract view
.subckt sky130_fd_sc_hd__dlygate4sd3_1 A VGND VNB VPB VPWR X
.ends

* Black-box entry subcircuit for sky130_fd_sc_hd__clkbuf_4 abstract view
.subckt sky130_fd_sc_hd__clkbuf_4 A VGND VNB VPB VPWR X
.ends

* Black-box entry subcircuit for sky130_fd_sc_hd__buf_2 abstract view
.subckt sky130_fd_sc_hd__buf_2 A VGND VNB VPB VPWR X
.ends

* Black-box entry subcircuit for sky130_fd_sc_hd__buf_6 abstract view
.subckt sky130_fd_sc_hd__buf_6 A VGND VNB VPB VPWR X
.ends

* Black-box entry subcircuit for sky130_fd_sc_hd__clkbuf_8 abstract view
.subckt sky130_fd_sc_hd__clkbuf_8 A VGND VNB VPB VPWR X
.ends

* Black-box entry subcircuit for sky130_fd_sc_hd__decap_3 abstract view
.subckt sky130_fd_sc_hd__decap_3 VGND VNB VPB VPWR
.ends

* Black-box entry subcircuit for sky130_fd_sc_hd__clkbuf_2 abstract view
.subckt sky130_fd_sc_hd__clkbuf_2 A VGND VNB VPB VPWR X
.ends

* Black-box entry subcircuit for sky130_fd_sc_hd__mux2_1 abstract view
.subckt sky130_fd_sc_hd__mux2_1 A0 A1 S VGND VNB VPB VPWR X
.ends

* Black-box entry subcircuit for sky130_fd_sc_hd__a221o_1 abstract view
.subckt sky130_fd_sc_hd__a221o_1 A1 A2 B1 B2 C1 VGND VNB VPB VPWR X
.ends

* Black-box entry subcircuit for sky130_fd_sc_hd__and2_1 abstract view
.subckt sky130_fd_sc_hd__and2_1 A B VGND VNB VPB VPWR X
.ends

* Black-box entry subcircuit for sky130_fd_sc_hd__dfrtp_4 abstract view
.subckt sky130_fd_sc_hd__dfrtp_4 CLK D RESET_B VGND VNB VPB VPWR Q
.ends

* Black-box entry subcircuit for sky130_fd_sc_hd__o211a_1 abstract view
.subckt sky130_fd_sc_hd__o211a_1 A1 A2 B1 C1 VGND VNB VPB VPWR X
.ends

* Black-box entry subcircuit for sky130_fd_sc_hd__nand2_4 abstract view
.subckt sky130_fd_sc_hd__nand2_4 A B VGND VNB VPB VPWR Y
.ends

* Black-box entry subcircuit for sky130_fd_sc_hd__or4_1 abstract view
.subckt sky130_fd_sc_hd__or4_1 A B C D VGND VNB VPB VPWR X
.ends

* Black-box entry subcircuit for sky130_fd_sc_hd__nor2_1 abstract view
.subckt sky130_fd_sc_hd__nor2_1 A B VGND VNB VPB VPWR Y
.ends

* Black-box entry subcircuit for sky130_fd_sc_hd__a22o_1 abstract view
.subckt sky130_fd_sc_hd__a22o_1 A1 A2 B1 B2 VGND VNB VPB VPWR X
.ends

* Black-box entry subcircuit for sky130_fd_sc_hd__a311oi_1 abstract view
.subckt sky130_fd_sc_hd__a311oi_1 A1 A2 A3 B1 C1 VGND VNB VPB VPWR Y
.ends

* Black-box entry subcircuit for sky130_fd_sc_hd__dfrtp_2 abstract view
.subckt sky130_fd_sc_hd__dfrtp_2 CLK D RESET_B VGND VNB VPB VPWR Q
.ends

* Black-box entry subcircuit for sky130_fd_sc_hd__and2b_2 abstract view
.subckt sky130_fd_sc_hd__and2b_2 A_N B VGND VNB VPB VPWR X
.ends

* Black-box entry subcircuit for sky130_fd_sc_hd__a21oi_1 abstract view
.subckt sky130_fd_sc_hd__a21oi_1 A1 A2 B1 VGND VNB VPB VPWR Y
.ends

* Black-box entry subcircuit for sky130_fd_sc_hd__or2_1 abstract view
.subckt sky130_fd_sc_hd__or2_1 A B VGND VNB VPB VPWR X
.ends

* Black-box entry subcircuit for sky130_fd_sc_hd__mux4_1 abstract view
.subckt sky130_fd_sc_hd__mux4_1 A0 A1 A2 A3 S0 S1 VGND VNB VPB VPWR X
.ends

* Black-box entry subcircuit for sky130_fd_sc_hd__and2_4 abstract view
.subckt sky130_fd_sc_hd__and2_4 A B VGND VNB VPB VPWR X
.ends

* Black-box entry subcircuit for sky130_fd_sc_hd__bufinv_16 abstract view
.subckt sky130_fd_sc_hd__bufinv_16 A VGND VNB VPB VPWR Y
.ends

* Black-box entry subcircuit for sky130_fd_sc_hd__clkbuf_1 abstract view
.subckt sky130_fd_sc_hd__clkbuf_1 A VGND VNB VPB VPWR X
.ends

* Black-box entry subcircuit for sky130_fd_sc_hd__clkbuf_16 abstract view
.subckt sky130_fd_sc_hd__clkbuf_16 A VGND VNB VPB VPWR X
.ends

* Black-box entry subcircuit for sky130_fd_sc_hd__buf_4 abstract view
.subckt sky130_fd_sc_hd__buf_4 A VGND VNB VPB VPWR X
.ends

* Black-box entry subcircuit for sky130_fd_sc_hd__xnor2_1 abstract view
.subckt sky130_fd_sc_hd__xnor2_1 A B VGND VNB VPB VPWR Y
.ends

* Black-box entry subcircuit for sky130_fd_sc_hd__buf_1 abstract view
.subckt sky130_fd_sc_hd__buf_1 A VGND VNB VPB VPWR X
.ends

* Black-box entry subcircuit for sky130_fd_sc_hd__o22a_2 abstract view
.subckt sky130_fd_sc_hd__o22a_2 A1 A2 B1 B2 VGND VNB VPB VPWR X
.ends

* Black-box entry subcircuit for sky130_fd_sc_hd__and3b_1 abstract view
.subckt sky130_fd_sc_hd__and3b_1 A_N B C VGND VNB VPB VPWR X
.ends

* Black-box entry subcircuit for sky130_fd_sc_hd__a221o_4 abstract view
.subckt sky130_fd_sc_hd__a221o_4 A1 A2 B1 B2 C1 VGND VNB VPB VPWR X
.ends

* Black-box entry subcircuit for sky130_fd_sc_hd__or4b_1 abstract view
.subckt sky130_fd_sc_hd__or4b_1 A B C D_N VGND VNB VPB VPWR X
.ends

* Black-box entry subcircuit for sky130_fd_sc_hd__a21oi_4 abstract view
.subckt sky130_fd_sc_hd__a21oi_4 A1 A2 B1 VGND VNB VPB VPWR Y
.ends

* Black-box entry subcircuit for sky130_fd_sc_hd__o221a_1 abstract view
.subckt sky130_fd_sc_hd__o221a_1 A1 A2 B1 B2 C1 VGND VNB VPB VPWR X
.ends

* Black-box entry subcircuit for sky130_fd_sc_hd__nand2_2 abstract view
.subckt sky130_fd_sc_hd__nand2_2 A B VGND VNB VPB VPWR Y
.ends

* Black-box entry subcircuit for sky130_fd_sc_hd__o21ai_1 abstract view
.subckt sky130_fd_sc_hd__o21ai_1 A1 A2 B1 VGND VNB VPB VPWR Y
.ends

* Black-box entry subcircuit for sky130_fd_sc_hd__xnor2_4 abstract view
.subckt sky130_fd_sc_hd__xnor2_4 A B VGND VNB VPB VPWR Y
.ends

* Black-box entry subcircuit for sky130_fd_sc_hd__a31o_1 abstract view
.subckt sky130_fd_sc_hd__a31o_1 A1 A2 A3 B1 VGND VNB VPB VPWR X
.ends

* Black-box entry subcircuit for sky130_fd_sc_hd__nand2_1 abstract view
.subckt sky130_fd_sc_hd__nand2_1 A B VGND VNB VPB VPWR Y
.ends

* Black-box entry subcircuit for sky130_fd_sc_hd__clkinv_4 abstract view
.subckt sky130_fd_sc_hd__clkinv_4 A VGND VNB VPB VPWR Y
.ends

* Black-box entry subcircuit for sky130_fd_sc_hd__clkinv_2 abstract view
.subckt sky130_fd_sc_hd__clkinv_2 A VGND VNB VPB VPWR Y
.ends

* Black-box entry subcircuit for sky130_fd_sc_hd__clkinvlp_4 abstract view
.subckt sky130_fd_sc_hd__clkinvlp_4 A VGND VNB VPB VPWR Y
.ends

* Black-box entry subcircuit for sky130_fd_sc_hd__a21oi_2 abstract view
.subckt sky130_fd_sc_hd__a21oi_2 A1 A2 B1 VGND VNB VPB VPWR Y
.ends

* Black-box entry subcircuit for sky130_fd_sc_hd__or4_2 abstract view
.subckt sky130_fd_sc_hd__or4_2 A B C D VGND VNB VPB VPWR X
.ends

* Black-box entry subcircuit for sky130_fd_sc_hd__or2_4 abstract view
.subckt sky130_fd_sc_hd__or2_4 A B VGND VNB VPB VPWR X
.ends

* Black-box entry subcircuit for sky130_fd_sc_hd__a22o_2 abstract view
.subckt sky130_fd_sc_hd__a22o_2 A1 A2 B1 B2 VGND VNB VPB VPWR X
.ends

* Black-box entry subcircuit for sky130_fd_sc_hd__or4b_4 abstract view
.subckt sky130_fd_sc_hd__or4b_4 A B C D_N VGND VNB VPB VPWR X
.ends

* Black-box entry subcircuit for sky130_fd_sc_hd__and4_1 abstract view
.subckt sky130_fd_sc_hd__and4_1 A B C D VGND VNB VPB VPWR X
.ends

* Black-box entry subcircuit for sky130_fd_sc_hd__o22a_4 abstract view
.subckt sky130_fd_sc_hd__o22a_4 A1 A2 B1 B2 VGND VNB VPB VPWR X
.ends

* Black-box entry subcircuit for sky130_fd_sc_hd__o21a_2 abstract view
.subckt sky130_fd_sc_hd__o21a_2 A1 A2 B1 VGND VNB VPB VPWR X
.ends

* Black-box entry subcircuit for sky130_fd_sc_hd__nor2_2 abstract view
.subckt sky130_fd_sc_hd__nor2_2 A B VGND VNB VPB VPWR Y
.ends

* Black-box entry subcircuit for sky130_fd_sc_hd__and3_2 abstract view
.subckt sky130_fd_sc_hd__and3_2 A B C VGND VNB VPB VPWR X
.ends

* Black-box entry subcircuit for sky130_fd_sc_hd__inv_6 abstract view
.subckt sky130_fd_sc_hd__inv_6 A VGND VNB VPB VPWR Y
.ends

* Black-box entry subcircuit for sky130_fd_sc_hd__xor2_1 abstract view
.subckt sky130_fd_sc_hd__xor2_1 A B VGND VNB VPB VPWR X
.ends

* Black-box entry subcircuit for sky130_fd_sc_hd__dlymetal6s2s_1 abstract view
.subckt sky130_fd_sc_hd__dlymetal6s2s_1 A VGND VNB VPB VPWR X
.ends

* Black-box entry subcircuit for sky130_fd_sc_hd__nor4b_1 abstract view
.subckt sky130_fd_sc_hd__nor4b_1 A B C D_N VGND VNB VPB VPWR Y
.ends

* Black-box entry subcircuit for sky130_fd_sc_hd__o211a_2 abstract view
.subckt sky130_fd_sc_hd__o211a_2 A1 A2 B1 C1 VGND VNB VPB VPWR X
.ends

* Black-box entry subcircuit for sky130_fd_sc_hd__or4_4 abstract view
.subckt sky130_fd_sc_hd__or4_4 A B C D VGND VNB VPB VPWR X
.ends

* Black-box entry subcircuit for sky130_fd_sc_hd__buf_8 abstract view
.subckt sky130_fd_sc_hd__buf_8 A VGND VNB VPB VPWR X
.ends

* Black-box entry subcircuit for sky130_fd_sc_hd__xnor2_2 abstract view
.subckt sky130_fd_sc_hd__xnor2_2 A B VGND VNB VPB VPWR Y
.ends

* Black-box entry subcircuit for sky130_fd_sc_hd__o211ai_1 abstract view
.subckt sky130_fd_sc_hd__o211ai_1 A1 A2 B1 C1 VGND VNB VPB VPWR Y
.ends

* Black-box entry subcircuit for sky130_fd_sc_hd__and2_2 abstract view
.subckt sky130_fd_sc_hd__and2_2 A B VGND VNB VPB VPWR X
.ends

* Black-box entry subcircuit for sky130_fd_sc_hd__o22ai_2 abstract view
.subckt sky130_fd_sc_hd__o22ai_2 A1 A2 B1 B2 VGND VNB VPB VPWR Y
.ends

* Black-box entry subcircuit for sky130_fd_sc_hd__inv_2 abstract view
.subckt sky130_fd_sc_hd__inv_2 A VGND VNB VPB VPWR Y
.ends

* Black-box entry subcircuit for sky130_fd_sc_hd__a2111oi_1 abstract view
.subckt sky130_fd_sc_hd__a2111oi_1 A1 A2 B1 C1 D1 VGND VNB VPB VPWR Y
.ends

* Black-box entry subcircuit for sky130_fd_sc_hd__a211o_2 abstract view
.subckt sky130_fd_sc_hd__a211o_2 A1 A2 B1 C1 VGND VNB VPB VPWR X
.ends

* Black-box entry subcircuit for sky130_fd_sc_hd__mux2_2 abstract view
.subckt sky130_fd_sc_hd__mux2_2 A0 A1 S VGND VNB VPB VPWR X
.ends

* Black-box entry subcircuit for sky130_fd_sc_hd__and2b_1 abstract view
.subckt sky130_fd_sc_hd__and2b_1 A_N B VGND VNB VPB VPWR X
.ends

* Black-box entry subcircuit for sky130_fd_sc_hd__or2_2 abstract view
.subckt sky130_fd_sc_hd__or2_2 A B VGND VNB VPB VPWR X
.ends

* Black-box entry subcircuit for sky130_fd_sc_hd__nor4b_2 abstract view
.subckt sky130_fd_sc_hd__nor4b_2 A B C D_N VGND VNB VPB VPWR Y
.ends

* Black-box entry subcircuit for sky130_fd_sc_hd__mux4_2 abstract view
.subckt sky130_fd_sc_hd__mux4_2 A0 A1 A2 A3 S0 S1 VGND VNB VPB VPWR X
.ends

* Black-box entry subcircuit for sky130_fd_sc_hd__o2111a_1 abstract view
.subckt sky130_fd_sc_hd__o2111a_1 A1 A2 B1 C1 D1 VGND VNB VPB VPWR X
.ends

* Black-box entry subcircuit for sky130_fd_sc_hd__inv_8 abstract view
.subckt sky130_fd_sc_hd__inv_8 A VGND VNB VPB VPWR Y
.ends

* Black-box entry subcircuit for sky130_fd_sc_hd__nor2_4 abstract view
.subckt sky130_fd_sc_hd__nor2_4 A B VGND VNB VPB VPWR Y
.ends

* Black-box entry subcircuit for sky130_fd_sc_hd__a2bb2o_1 abstract view
.subckt sky130_fd_sc_hd__a2bb2o_1 A1_N A2_N B1 B2 VGND VNB VPB VPWR X
.ends

* Black-box entry subcircuit for sky130_fd_sc_hd__o21ai_4 abstract view
.subckt sky130_fd_sc_hd__o21ai_4 A1 A2 B1 VGND VNB VPB VPWR Y
.ends

* Black-box entry subcircuit for sky130_fd_sc_hd__o32a_4 abstract view
.subckt sky130_fd_sc_hd__o32a_4 A1 A2 A3 B1 B2 VGND VNB VPB VPWR X
.ends

* Black-box entry subcircuit for sky130_fd_sc_hd__nand4b_1 abstract view
.subckt sky130_fd_sc_hd__nand4b_1 A_N B C D VGND VNB VPB VPWR Y
.ends

* Black-box entry subcircuit for sky130_fd_sc_hd__a2111o_1 abstract view
.subckt sky130_fd_sc_hd__a2111o_1 A1 A2 B1 C1 D1 VGND VNB VPB VPWR X
.ends

* Black-box entry subcircuit for sky130_fd_sc_hd__or3_1 abstract view
.subckt sky130_fd_sc_hd__or3_1 A B C VGND VNB VPB VPWR X
.ends

* Black-box entry subcircuit for sky130_fd_sc_hd__or3b_4 abstract view
.subckt sky130_fd_sc_hd__or3b_4 A B C_N VGND VNB VPB VPWR X
.ends

* Black-box entry subcircuit for sky130_fd_sc_hd__o21ai_2 abstract view
.subckt sky130_fd_sc_hd__o21ai_2 A1 A2 B1 VGND VNB VPB VPWR Y
.ends

* Black-box entry subcircuit for sky130_fd_sc_hd__inv_4 abstract view
.subckt sky130_fd_sc_hd__inv_4 A VGND VNB VPB VPWR Y
.ends

* Black-box entry subcircuit for sky130_fd_sc_hd__and4b_4 abstract view
.subckt sky130_fd_sc_hd__and4b_4 A_N B C D VGND VNB VPB VPWR X
.ends

* Black-box entry subcircuit for sky130_fd_sc_hd__o211ai_4 abstract view
.subckt sky130_fd_sc_hd__o211ai_4 A1 A2 B1 C1 VGND VNB VPB VPWR Y
.ends

* Black-box entry subcircuit for sky130_fd_sc_hd__o32a_1 abstract view
.subckt sky130_fd_sc_hd__o32a_1 A1 A2 A3 B1 B2 VGND VNB VPB VPWR X
.ends

* Black-box entry subcircuit for sky130_fd_sc_hd__o211ai_2 abstract view
.subckt sky130_fd_sc_hd__o211ai_2 A1 A2 B1 C1 VGND VNB VPB VPWR Y
.ends

* Black-box entry subcircuit for sky130_fd_sc_hd__nor3b_4 abstract view
.subckt sky130_fd_sc_hd__nor3b_4 A B C_N VGND VNB VPB VPWR Y
.ends

* Black-box entry subcircuit for sky130_fd_sc_hd__buf_12 abstract view
.subckt sky130_fd_sc_hd__buf_12 A VGND VNB VPB VPWR X
.ends

* Black-box entry subcircuit for sky130_fd_sc_hd__o22ai_1 abstract view
.subckt sky130_fd_sc_hd__o22ai_1 A1 A2 B1 B2 VGND VNB VPB VPWR Y
.ends

* Black-box entry subcircuit for sky130_fd_sc_hd__or3b_1 abstract view
.subckt sky130_fd_sc_hd__or3b_1 A B C_N VGND VNB VPB VPWR X
.ends

* Black-box entry subcircuit for sky130_fd_sc_hd__clkinv_8 abstract view
.subckt sky130_fd_sc_hd__clkinv_8 A VGND VNB VPB VPWR Y
.ends

* Black-box entry subcircuit for sky130_fd_sc_hd__nand2b_2 abstract view
.subckt sky130_fd_sc_hd__nand2b_2 A_N B VGND VNB VPB VPWR Y
.ends

* Black-box entry subcircuit for sky130_fd_sc_hd__and3b_4 abstract view
.subckt sky130_fd_sc_hd__and3b_4 A_N B C VGND VNB VPB VPWR X
.ends

* Black-box entry subcircuit for sky130_fd_sc_hd__a21boi_1 abstract view
.subckt sky130_fd_sc_hd__a21boi_1 A1 A2 B1_N VGND VNB VPB VPWR Y
.ends

* Black-box entry subcircuit for sky130_fd_sc_hd__inv_12 abstract view
.subckt sky130_fd_sc_hd__inv_12 A VGND VNB VPB VPWR Y
.ends

* Black-box entry subcircuit for sky130_fd_sc_hd__o2bb2a_1 abstract view
.subckt sky130_fd_sc_hd__o2bb2a_1 A1_N A2_N B1 B2 VGND VNB VPB VPWR X
.ends

* Black-box entry subcircuit for sky130_fd_sc_hd__a21o_4 abstract view
.subckt sky130_fd_sc_hd__a21o_4 A1 A2 B1 VGND VNB VPB VPWR X
.ends

* Black-box entry subcircuit for sky130_fd_sc_hd__o22ai_4 abstract view
.subckt sky130_fd_sc_hd__o22ai_4 A1 A2 B1 B2 VGND VNB VPB VPWR Y
.ends

* Black-box entry subcircuit for sky130_fd_sc_hd__or3b_2 abstract view
.subckt sky130_fd_sc_hd__or3b_2 A B C_N VGND VNB VPB VPWR X
.ends

* Black-box entry subcircuit for sky130_fd_sc_hd__o31a_1 abstract view
.subckt sky130_fd_sc_hd__o31a_1 A1 A2 A3 B1 VGND VNB VPB VPWR X
.ends

* Black-box entry subcircuit for sky130_fd_sc_hd__and3b_2 abstract view
.subckt sky130_fd_sc_hd__and3b_2 A_N B C VGND VNB VPB VPWR X
.ends

* Black-box entry subcircuit for sky130_fd_sc_hd__nor3_2 abstract view
.subckt sky130_fd_sc_hd__nor3_2 A B C VGND VNB VPB VPWR Y
.ends

* Black-box entry subcircuit for sky130_fd_sc_hd__or4bb_1 abstract view
.subckt sky130_fd_sc_hd__or4bb_1 A B C_N D_N VGND VNB VPB VPWR X
.ends

* Black-box entry subcircuit for sky130_fd_sc_hd__o21a_4 abstract view
.subckt sky130_fd_sc_hd__o21a_4 A1 A2 B1 VGND VNB VPB VPWR X
.ends

* Black-box entry subcircuit for sky130_fd_sc_hd__o41a_1 abstract view
.subckt sky130_fd_sc_hd__o41a_1 A1 A2 A3 A4 B1 VGND VNB VPB VPWR X
.ends

* Black-box entry subcircuit for sky130_fd_sc_hd__nor2_8 abstract view
.subckt sky130_fd_sc_hd__nor2_8 A B VGND VNB VPB VPWR Y
.ends

* Black-box entry subcircuit for sky130_fd_sc_hd__or3_4 abstract view
.subckt sky130_fd_sc_hd__or3_4 A B C VGND VNB VPB VPWR X
.ends

* Black-box entry subcircuit for sky130_fd_sc_hd__a22oi_4 abstract view
.subckt sky130_fd_sc_hd__a22oi_4 A1 A2 B1 B2 VGND VNB VPB VPWR Y
.ends

* Black-box entry subcircuit for sky130_fd_sc_hd__nor3_1 abstract view
.subckt sky130_fd_sc_hd__nor3_1 A B C VGND VNB VPB VPWR Y
.ends

* Black-box entry subcircuit for sky130_fd_sc_hd__and4bb_1 abstract view
.subckt sky130_fd_sc_hd__and4bb_1 A_N B_N C D VGND VNB VPB VPWR X
.ends

* Black-box entry subcircuit for sky130_fd_sc_hd__a31o_2 abstract view
.subckt sky130_fd_sc_hd__a31o_2 A1 A2 A3 B1 VGND VNB VPB VPWR X
.ends

* Black-box entry subcircuit for sky130_fd_sc_hd__a41o_1 abstract view
.subckt sky130_fd_sc_hd__a41o_1 A1 A2 A3 A4 B1 VGND VNB VPB VPWR X
.ends

* Black-box entry subcircuit for sky130_fd_sc_hd__xor2_2 abstract view
.subckt sky130_fd_sc_hd__xor2_2 A B VGND VNB VPB VPWR X
.ends

* Black-box entry subcircuit for sky130_fd_sc_hd__nor3b_1 abstract view
.subckt sky130_fd_sc_hd__nor3b_1 A B C_N VGND VNB VPB VPWR Y
.ends

* Black-box entry subcircuit for sky130_fd_sc_hd__o2111ai_1 abstract view
.subckt sky130_fd_sc_hd__o2111ai_1 A1 A2 B1 C1 D1 VGND VNB VPB VPWR Y
.ends

* Black-box entry subcircuit for sky130_fd_sc_hd__nor4_1 abstract view
.subckt sky130_fd_sc_hd__nor4_1 A B C D VGND VNB VPB VPWR Y
.ends

* Black-box entry subcircuit for sky130_fd_sc_hd__a221o_2 abstract view
.subckt sky130_fd_sc_hd__a221o_2 A1 A2 B1 B2 C1 VGND VNB VPB VPWR X
.ends

* Black-box entry subcircuit for sky130_fd_sc_hd__or3_2 abstract view
.subckt sky130_fd_sc_hd__or3_2 A B C VGND VNB VPB VPWR X
.ends

* Black-box entry subcircuit for sky130_fd_sc_hd__nand2_8 abstract view
.subckt sky130_fd_sc_hd__nand2_8 A B VGND VNB VPB VPWR Y
.ends

* Black-box entry subcircuit for sky130_fd_sc_hd__and4b_1 abstract view
.subckt sky130_fd_sc_hd__and4b_1 A_N B C D VGND VNB VPB VPWR X
.ends

* Black-box entry subcircuit for sky130_fd_sc_hd__nand3b_2 abstract view
.subckt sky130_fd_sc_hd__nand3b_2 A_N B C VGND VNB VPB VPWR Y
.ends

* Black-box entry subcircuit for sky130_fd_sc_hd__mux2_4 abstract view
.subckt sky130_fd_sc_hd__mux2_4 A0 A1 S VGND VNB VPB VPWR X
.ends

* Black-box entry subcircuit for sky130_fd_sc_hd__a2111oi_2 abstract view
.subckt sky130_fd_sc_hd__a2111oi_2 A1 A2 B1 C1 D1 VGND VNB VPB VPWR Y
.ends

* Black-box entry subcircuit for sky130_fd_sc_hd__and3_4 abstract view
.subckt sky130_fd_sc_hd__and3_4 A B C VGND VNB VPB VPWR X
.ends

* Black-box entry subcircuit for sky130_fd_sc_hd__o311a_1 abstract view
.subckt sky130_fd_sc_hd__o311a_1 A1 A2 A3 B1 C1 VGND VNB VPB VPWR X
.ends

* Black-box entry subcircuit for sky130_fd_sc_hd__and2b_4 abstract view
.subckt sky130_fd_sc_hd__and2b_4 A_N B VGND VNB VPB VPWR X
.ends

.subckt tinyjambu_core VGND VPWR ad[0] ad[100] ad[101] ad[102] ad[103] ad[104] ad[105]
+ ad[106] ad[107] ad[108] ad[109] ad[10] ad[110] ad[111] ad[112] ad[113] ad[114] ad[115]
+ ad[116] ad[117] ad[118] ad[119] ad[11] ad[120] ad[121] ad[122] ad[123] ad[124] ad[125]
+ ad[126] ad[127] ad[12] ad[13] ad[14] ad[15] ad[16] ad[17] ad[18] ad[19] ad[1] ad[20]
+ ad[21] ad[22] ad[23] ad[24] ad[25] ad[26] ad[27] ad[28] ad[29] ad[2] ad[30] ad[31]
+ ad[32] ad[33] ad[34] ad[35] ad[36] ad[37] ad[38] ad[39] ad[3] ad[40] ad[41] ad[42]
+ ad[43] ad[44] ad[45] ad[46] ad[47] ad[48] ad[49] ad[4] ad[50] ad[51] ad[52] ad[53]
+ ad[54] ad[55] ad[56] ad[57] ad[58] ad[59] ad[5] ad[60] ad[61] ad[62] ad[63] ad[64]
+ ad[65] ad[66] ad[67] ad[68] ad[69] ad[6] ad[70] ad[71] ad[72] ad[73] ad[74] ad[75]
+ ad[76] ad[77] ad[78] ad[79] ad[7] ad[80] ad[81] ad[82] ad[83] ad[84] ad[85] ad[86]
+ ad[87] ad[88] ad[89] ad[8] ad[90] ad[91] ad[92] ad[93] ad[94] ad[95] ad[96] ad[97]
+ ad[98] ad[99] ad[9] ad_length[0] ad_length[1] ad_length[2] ad_length[3] ad_length[4]
+ clk data_in[0] data_in[100] data_in[101] data_in[102] data_in[103] data_in[104]
+ data_in[105] data_in[106] data_in[107] data_in[108] data_in[109] data_in[10] data_in[110]
+ data_in[111] data_in[112] data_in[113] data_in[114] data_in[115] data_in[116] data_in[117]
+ data_in[118] data_in[119] data_in[11] data_in[120] data_in[121] data_in[122] data_in[123]
+ data_in[124] data_in[125] data_in[126] data_in[127] data_in[12] data_in[13] data_in[14]
+ data_in[15] data_in[16] data_in[17] data_in[18] data_in[19] data_in[1] data_in[20]
+ data_in[21] data_in[22] data_in[23] data_in[24] data_in[25] data_in[26] data_in[27]
+ data_in[28] data_in[29] data_in[2] data_in[30] data_in[31] data_in[32] data_in[33]
+ data_in[34] data_in[35] data_in[36] data_in[37] data_in[38] data_in[39] data_in[3]
+ data_in[40] data_in[41] data_in[42] data_in[43] data_in[44] data_in[45] data_in[46]
+ data_in[47] data_in[48] data_in[49] data_in[4] data_in[50] data_in[51] data_in[52]
+ data_in[53] data_in[54] data_in[55] data_in[56] data_in[57] data_in[58] data_in[59]
+ data_in[5] data_in[60] data_in[61] data_in[62] data_in[63] data_in[64] data_in[65]
+ data_in[66] data_in[67] data_in[68] data_in[69] data_in[6] data_in[70] data_in[71]
+ data_in[72] data_in[73] data_in[74] data_in[75] data_in[76] data_in[77] data_in[78]
+ data_in[79] data_in[7] data_in[80] data_in[81] data_in[82] data_in[83] data_in[84]
+ data_in[85] data_in[86] data_in[87] data_in[88] data_in[89] data_in[8] data_in[90]
+ data_in[91] data_in[92] data_in[93] data_in[94] data_in[95] data_in[96] data_in[97]
+ data_in[98] data_in[99] data_in[9] data_length[0] data_length[1] data_length[2]
+ data_length[3] data_length[4] data_out[0] data_out[100] data_out[101] data_out[102]
+ data_out[103] data_out[104] data_out[105] data_out[106] data_out[107] data_out[108]
+ data_out[109] data_out[10] data_out[110] data_out[111] data_out[112] data_out[113]
+ data_out[114] data_out[115] data_out[116] data_out[117] data_out[118] data_out[119]
+ data_out[11] data_out[120] data_out[121] data_out[122] data_out[123] data_out[124]
+ data_out[125] data_out[126] data_out[127] data_out[12] data_out[13] data_out[14]
+ data_out[15] data_out[16] data_out[17] data_out[18] data_out[19] data_out[1] data_out[20]
+ data_out[21] data_out[22] data_out[23] data_out[24] data_out[25] data_out[26] data_out[27]
+ data_out[28] data_out[29] data_out[2] data_out[30] data_out[31] data_out[32] data_out[33]
+ data_out[34] data_out[35] data_out[36] data_out[37] data_out[38] data_out[39] data_out[3]
+ data_out[40] data_out[41] data_out[42] data_out[43] data_out[44] data_out[45] data_out[46]
+ data_out[47] data_out[48] data_out[49] data_out[4] data_out[50] data_out[51] data_out[52]
+ data_out[53] data_out[54] data_out[55] data_out[56] data_out[57] data_out[58] data_out[59]
+ data_out[5] data_out[60] data_out[61] data_out[62] data_out[63] data_out[64] data_out[65]
+ data_out[66] data_out[67] data_out[68] data_out[69] data_out[6] data_out[70] data_out[71]
+ data_out[72] data_out[73] data_out[74] data_out[75] data_out[76] data_out[77] data_out[78]
+ data_out[79] data_out[7] data_out[80] data_out[81] data_out[82] data_out[83] data_out[84]
+ data_out[85] data_out[86] data_out[87] data_out[88] data_out[89] data_out[8] data_out[90]
+ data_out[91] data_out[92] data_out[93] data_out[94] data_out[95] data_out[96] data_out[97]
+ data_out[98] data_out[99] data_out[9] done ena key[0] key[100] key[101] key[102]
+ key[103] key[104] key[105] key[106] key[107] key[108] key[109] key[10] key[110]
+ key[111] key[112] key[113] key[114] key[115] key[116] key[117] key[118] key[119]
+ key[11] key[120] key[121] key[122] key[123] key[124] key[125] key[126] key[127]
+ key[12] key[13] key[14] key[15] key[16] key[17] key[18] key[19] key[1] key[20] key[21]
+ key[22] key[23] key[24] key[25] key[26] key[27] key[28] key[29] key[2] key[30] key[31]
+ key[32] key[33] key[34] key[35] key[36] key[37] key[38] key[39] key[3] key[40] key[41]
+ key[42] key[43] key[44] key[45] key[46] key[47] key[48] key[49] key[4] key[50] key[51]
+ key[52] key[53] key[54] key[55] key[56] key[57] key[58] key[59] key[5] key[60] key[61]
+ key[62] key[63] key[64] key[65] key[66] key[67] key[68] key[69] key[6] key[70] key[71]
+ key[72] key[73] key[74] key[75] key[76] key[77] key[78] key[79] key[7] key[80] key[81]
+ key[82] key[83] key[84] key[85] key[86] key[87] key[88] key[89] key[8] key[90] key[91]
+ key[92] key[93] key[94] key[95] key[96] key[97] key[98] key[99] key[9] nonce[0]
+ nonce[10] nonce[11] nonce[12] nonce[13] nonce[14] nonce[15] nonce[16] nonce[17]
+ nonce[18] nonce[19] nonce[1] nonce[20] nonce[21] nonce[22] nonce[23] nonce[24] nonce[25]
+ nonce[26] nonce[27] nonce[28] nonce[29] nonce[2] nonce[30] nonce[31] nonce[32] nonce[33]
+ nonce[34] nonce[35] nonce[36] nonce[37] nonce[38] nonce[39] nonce[3] nonce[40] nonce[41]
+ nonce[42] nonce[43] nonce[44] nonce[45] nonce[46] nonce[47] nonce[48] nonce[49]
+ nonce[4] nonce[50] nonce[51] nonce[52] nonce[53] nonce[54] nonce[55] nonce[56] nonce[57]
+ nonce[58] nonce[59] nonce[5] nonce[60] nonce[61] nonce[62] nonce[63] nonce[64] nonce[65]
+ nonce[66] nonce[67] nonce[68] nonce[69] nonce[6] nonce[70] nonce[71] nonce[72] nonce[73]
+ nonce[74] nonce[75] nonce[76] nonce[77] nonce[78] nonce[79] nonce[7] nonce[80] nonce[81]
+ nonce[82] nonce[83] nonce[84] nonce[85] nonce[86] nonce[87] nonce[88] nonce[89]
+ nonce[8] nonce[90] nonce[91] nonce[92] nonce[93] nonce[94] nonce[95] nonce[9] rst_n
+ sel_type[0] sel_type[1] sel_type[2] tag[0] tag[10] tag[11] tag[12] tag[13] tag[14]
+ tag[15] tag[16] tag[17] tag[18] tag[19] tag[1] tag[20] tag[21] tag[22] tag[23] tag[24]
+ tag[25] tag[26] tag[27] tag[28] tag[29] tag[2] tag[30] tag[31] tag[32] tag[33] tag[34]
+ tag[35] tag[36] tag[37] tag[38] tag[39] tag[3] tag[40] tag[41] tag[42] tag[43] tag[44]
+ tag[45] tag[46] tag[47] tag[48] tag[49] tag[4] tag[50] tag[51] tag[52] tag[53] tag[54]
+ tag[55] tag[56] tag[57] tag[58] tag[59] tag[5] tag[60] tag[61] tag[62] tag[63] tag[6]
+ tag[7] tag[8] tag[9] tag_in[0] tag_in[10] tag_in[11] tag_in[12] tag_in[13] tag_in[14]
+ tag_in[15] tag_in[16] tag_in[17] tag_in[18] tag_in[19] tag_in[1] tag_in[20] tag_in[21]
+ tag_in[22] tag_in[23] tag_in[24] tag_in[25] tag_in[26] tag_in[27] tag_in[28] tag_in[29]
+ tag_in[2] tag_in[30] tag_in[31] tag_in[32] tag_in[33] tag_in[34] tag_in[35] tag_in[36]
+ tag_in[37] tag_in[38] tag_in[39] tag_in[3] tag_in[40] tag_in[41] tag_in[42] tag_in[43]
+ tag_in[44] tag_in[45] tag_in[46] tag_in[47] tag_in[48] tag_in[49] tag_in[4] tag_in[50]
+ tag_in[51] tag_in[52] tag_in[53] tag_in[54] tag_in[55] tag_in[56] tag_in[57] tag_in[58]
+ tag_in[59] tag_in[5] tag_in[60] tag_in[61] tag_in[62] tag_in[63] tag_in[6] tag_in[7]
+ tag_in[8] tag_in[9] valid
XFILLER_228_813 VPWR VGND VPWR VGND sky130_ef_sc_hd__decap_12
XFILLER_79_391 VGND VGND VPWR VPWR sky130_fd_sc_hd__fill_1
XFILLER_67_553 VGND VGND VPWR VPWR sky130_fd_sc_hd__decap_6
X_3155_ net1222 net1218 u_dp.data_r\[100\] VGND VGND VPWR VPWR _1239_ sky130_fd_sc_hd__and3_1
XFILLER_132_1377 VGND VGND VPWR VPWR sky130_fd_sc_hd__fill_1
XFILLER_82_501 VPWR VGND VPWR VGND sky130_ef_sc_hd__decap_12
XFILLER_27_417 VPWR VGND VPWR VGND sky130_ef_sc_hd__decap_12
XTAP_TAPCELL_ROW_2_538 VGND VPWR sky130_fd_sc_hd__tapvpwrvgnd_1
XTAP_TAPCELL_ROW_2_549 VGND VPWR sky130_fd_sc_hd__tapvpwrvgnd_1
XFILLER_67_597 VPWR VGND VPWR VGND sky130_ef_sc_hd__decap_12
XFILLER_223_98 VPWR VGND VPWR VGND sky130_ef_sc_hd__decap_12
X_3086_ net119 net1049 _1170_ VGND VGND VPWR VPWR _1171_ sky130_fd_sc_hd__o21a_1
XFILLER_215_529 VPWR VGND VPWR VGND sky130_ef_sc_hd__decap_12
XFILLER_82_545 VPWR VGND VPWR VGND sky130_ef_sc_hd__decap_12
XFILLER_199_219 VGND VGND VPWR VPWR sky130_fd_sc_hd__decap_4
XFILLER_39_1101 VPWR VGND VPWR VGND sky130_ef_sc_hd__decap_12
XFILLER_36_973 VGND VGND VPWR VPWR sky130_fd_sc_hd__decap_6
XFILLER_78_1161 VPWR VGND VPWR VGND sky130_ef_sc_hd__decap_12
XFILLER_82_589 VPWR VGND VPWR VGND sky130_ef_sc_hd__decap_12
XFILLER_51_921 VPWR VGND VPWR VGND sky130_ef_sc_hd__decap_12
XFILLER_39_1145 VPWR VGND VPWR VGND sky130_ef_sc_hd__decap_12
XFILLER_126_1104 VPWR VGND VPWR VGND sky130_ef_sc_hd__decap_12
XFILLER_223_573 VPWR VGND VPWR VGND sky130_ef_sc_hd__decap_12
XTAP_TAPCELL_ROW_214_5731 VGND VPWR sky130_fd_sc_hd__tapvpwrvgnd_1
XFILLER_52_18 VGND VGND VPWR VPWR sky130_fd_sc_hd__decap_8
XFILLER_165_1175 VGND VGND VPWR VPWR sky130_fd_sc_hd__fill_1
XFILLER_35_1009 VPWR VGND VPWR VGND sky130_ef_sc_hd__decap_12
XFILLER_51_965 VPWR VGND VPWR VGND sky130_ef_sc_hd__decap_12
XFILLER_52_29 VPWR VGND VPWR VGND sky130_ef_sc_hd__decap_12
XTAP_TAPCELL_ROW_214_5742 VGND VPWR sky130_fd_sc_hd__tapvpwrvgnd_1
XFILLER_196_937 VGND VGND VPWR VPWR sky130_fd_sc_hd__decap_4
XFILLER_22_133 VGND VGND VPWR VPWR sky130_fd_sc_hd__decap_6
XFILLER_39_1189 VGND VGND VPWR VPWR sky130_fd_sc_hd__decap_6
XFILLER_11_818 VGND VGND VPWR VPWR sky130_fd_sc_hd__decap_8
XFILLER_210_234 VPWR VGND VPWR VGND sky130_ef_sc_hd__decap_12
XFILLER_168_29 VPWR VGND VPWR VGND sky130_ef_sc_hd__decap_12